Test Cases for Ybus/test1.dat
                               100.0
BUS DATA FOLLOWS
   1               0000  3 1.0200   0.00     0.00      0.00   46.98   29.75     0.0 1.0200     0.0     0.0     0.0  0.0000 0000 0000
   2               0000  0 0.9439  -8.27    47.00     18.00    0.00    0.00     0.0 0.9439     0.0     0.0     0.0  0.0000 0000 0000
-999
BRANCH DATA FOLLOWS
   1    2  0000 0 0  0.000000   0.294600  0.00000   100 00000 00000 0000 0  0.0000    0.00   0.0    0.0    0.0      0.0      0.0 0000
-999
LOSS ZONES FOLLOWS
-99
INTERCHANGE DATA FOLLOWS
-9
TIE LINES FOLLOWS
-999
END OF DATA

